<?xml version="1.0" encoding="UTF-8"?>
<additional>
    <tlLogic id="intersection" type="static" programID="0" offset="0">
        <!-- Phase 0: North-South GREEN 30s -->
        <phase duration="30" state="GrGr"/>
        <!-- Phase 1: North-South YELLOW 3s -->
        <phase duration="3"  state="yryr"/>
        <!-- Phase 2: East-West GREEN 30s -->
        <phase duration="30" state="rGrG"/>
        <!-- Phase 3: East-West YELLOW 3s -->
        <phase duration="3"  state="ryry"/>
    </tlLogic>
</additional>
